FoamFile {
    version         1.4;
    format          ascii;

    root            "";
    case            "";
    instance        "constant";
    local           "";

    class           dictionary;
    object          gmtDict;
}

projection "X8i/5i";
projection2D XZ;
separateLegend false;
plotBoundaryDots false;
plotZeroValuePolys false;

FieldsToPlot (
	[T_diff rawValues -7 7 1 "$GMTU/colours/red_white_blue.cpt"]
	[none mesh "gray"]
	[none numbered 0]
);

region "-5e3/0e3/0/2e3";
boundaryMarks "5e3/1e3WSen";
