FoamFile {
    version     2.0;
    format      ascii;
    class       dictionary;
    location    "system";
    object      controlDict;
}

startFrom       startTime;
startTime       0;
stopAt          endTime;
endTime         18000;
deltaT          8;
writeControl    runTime;
writeInterval   128;
purgeWrite      0;
writeFormat     ascii;
writePrecision  15;
writeCompression uncompressed;
timeFormat      general;
timePrecision   6;
runTimeModifiable yes;
adjustTimeStep no;
maxCo          1;
libs           ("libOpenFOAM.so" "libExnerTheta.so" "libspecie.so" "libfiniteVolumeAtmos.so");

