FoamFile {
    version     2.0;
    format      ascii;
    class       dictionary;
    location    "constant";
    object      add2dMountainDict;
}

mountainType ScharExp;
coordSys BTF;

zt 20e3;
a 5e3;
hm 3.2e3;
lambda 4e3;
