FoamFile {
    version     2.0;
    format      ascii;
    class       dictionary;
    location    "constant";
    object      mountainDict;
}

mountainType        SCHAER_COS;
mountainHalfWidth	5e3;
mountainPeakHeight	3.2e3;
mountainWavelength	4e3;
