FoamFile {
    version     2.0;
    format      ascii;
    class       dictionary;
    location    "constant";
    object      mountainDict;
}

domainHeight		20e3;
mountainType        WitchOfAgnesiMountain;
mountainHalfWidth	5e3;
mountainPeakHeight	3e3;
